data/irish_network/psse/WinterPeak2013.raw
0,   100.00          / PSS/E-30.3    MON, NOV 18 2013  18:11
AITYTFS Winter Peak 2013/14

    10,'F_M         ',  38.0000,1,     0.000,     0.000,   2,   1,1.06551, -14.0963,   2
    11,'FMN LOOP    ',  38.0000,1,     0.000,     0.000,   2,   1,1.07361, -12.1478,   2
    12,'BEDFORD     ',  38.0000,1,     0.000,     0.000,   1,   1,1.05306, -15.8163,   2
    13,'M_R         ',  38.0000,1,     0.000,     0.000,   1,   1,1.07086, -16.3998,   2
    14,'F_I         ',  38.0000,1,     0.000,     0.000,   2,   1,1.05305, -14.3147,   2
    15,'I_M         ',  38.0000,1,     0.000,     0.000,   2,   1,1.06212, -14.6974,   2
  1021,'ARDNACRU    ', 110.0000,1,     0.000,     0.000,   4,   1,1.05000,  -5.6562,   1
  1041,'AGHADA      ', 110.0000,1,     0.000,     0.000,   3,   1,1.03805,  -2.3005,   1
  1042,'AGHADA      ', 220.0000,1,     0.000,     0.000,   3,   1,1.04000,   0.6851,   1
  1052,'AGHADA_B    ', 220.0000,1,     0.000,     0.000,   3,   1,1.04057,   0.5399,   1
  1061,'ARIGNA      ', 110.0000,1,     0.000,     0.000,   9,   1,1.04679, -11.3423,   2
  1062,'AGH_AT14    ', 220.0000,1,     0.000,     0.000,   3,   1,1.04000,   0.6851,   1
  1071,'AGANNYGA    ', 110.0000,1,     0.000,     0.000,   4,   1,1.06267,  -6.5208,   1
  1072,'AGHT2102    ', 220.0000,1,     0.000,     0.000,   3,   1,1.03995,   0.6708,   1
  1081,'AHANE       ', 110.0000,1,     0.000,     0.000,   7,   1,1.04979,  -5.1580,   2
  1101,'ANNER       ', 110.0000,1,     0.000,     0.000,   5,   1,1.04721, -10.1567,   5
  1121,'ARKLOW      ', 110.0000,1,     0.000,     0.000,   6,   1,1.06464,  -8.9468,   1
  1122,'ARKLOW      ', 220.0000,1,     0.000,     0.000,   6,   1,1.06455,  -7.4382,   1
  1131,'ATHEA       ', 110.0000,1,     0.000,     0.000,   7,   1,1.05356,  -0.0716,   4
  1141,'ATHLONE     ', 110.0000,1,     0.000,     0.000,   9,   1,1.06309,  -9.3863,   1
  1151,'ATHEA-2     ', 110.0000,1,     0.000,     0.000,   7,   1,1.05356,  -0.0716,   1
  1161,'AUGHINIS    ', 110.0000,1,     0.000,     0.000,   7,   1,1.05000,   0.1569,   1
  1181,'ARVA        ', 110.0000,1,     0.000,     0.000,  10,   1,1.04189, -13.9818,   1
  1201,'ARTANE      ', 110.0000,1,     0.000,     0.000,   1,   1,1.06480,  -9.0612,   2
  1221,'ATHY        ', 110.0000,1,     0.000,     0.000,   8,   1,1.04748,  -9.5921,   1
  1231,'BALLYWAT    ', 110.0000,1,     0.000,     0.000,   6,   1,1.06671,  -8.1103,   4
  1251,'BOOLTIAG    ', 110.0000,1,     0.000,     0.000,   4,   1,1.04060,  -7.4454,   2
  1271,'BALTRASN    ', 110.0000,1,     0.000,     0.000,  10,   1,1.04293, -11.2160,   1
  1281,'BALLYLIC    ', 110.0000,1,     0.000,     0.000,   3,   1,1.03135,  -4.4486,   2
  1301,'BALLYBEG    ', 110.0000,1,     0.000,     0.000,   6,   1,1.05817,  -9.8665,   1
  1321,'BLAKE       ', 110.0000,1,     0.000,     0.000,   8,   1,1.04337, -10.2585,   2
  1341,'BINBANE     ', 110.0000,1,     0.000,     0.000,   9,   1,1.03397, -14.8654,   2
  1351,'BARODA      ', 110.0000,1,     0.000,     0.000,   8,   1,1.04659, -10.5122,   1
  1361,'BALLYDIN    ', 110.0000,1,     0.000,     0.000,   5,   1,1.04594,  -9.6812,   1
  1381,'BARNAHEL    ', 110.0000,1,     0.000,     0.000,   3,   1,1.03547,  -2.8014,   1
  1391,'BARNAHEL    ', 110.0000,1,     0.000,     0.000,   3,   1,1.03155,  -3.0543,   1
  1401,'BELLACOR    ', 110.0000,1,     0.000,     0.000,   9,   1,1.05162, -13.5760,   1
  1421,'BLACKROC    ', 110.0000,1,     0.000,     0.000,   1,   1,1.04911, -10.6951,   2
  1441,'BANDON      ', 110.0000,1,     0.000,     0.000,   3,   1,1.02463,  -4.6384,   1
  1451,'CLOGHRAN    ', 110.0000,1,     0.000,     0.000,   1,   1,1.05290,  -9.7775,   1
  1461,'BARRYMOR    ', 110.0000,1,     0.000,     0.000,   5,   1,1.03568,  -5.6013,   2
  1481,'BUTLERST    ', 110.0000,1,     0.000,     0.000,   5,   1,1.05415,  -8.5255,   1
  1501,'BRINNY      ', 110.0000,1,     0.000,     0.000,   3,   1,1.02443,  -4.6514,   5
  1541,'BANOGE      ', 110.0000,1,     0.000,     0.000,   6,   1,1.06164,  -8.9027,   1
  1551,'BOGGERAG    ', 110.0000,1,     0.000,     0.000,   3,   1,1.05000,   2.0510,   1
  1581,'CABRA       ', 110.0000,1,     0.000,     0.000,   1,   1,1.06402,  -9.1181,   2
  1601,'CLASHAVO    ', 110.0000,1,     0.000,     0.000,   3,   1,1.04303,  -2.4978,   1
  1602,'CLASHAVO    ', 220.0000,1,     0.000,     0.000,   3,   1,1.04838,  -0.5974,   1
  1611,'CLONKEEN    ', 110.0000,1,     0.000,     0.000,   7,   1,1.04957,  -0.8572,   1
  1621,'COOLROE     ', 110.0000,1,     0.000,     0.000,   3,   1,1.03628,  -3.5038,   1
  1631,'CORDERRY    ', 110.0000,1,     0.000,     0.000,   9,   1,1.05044, -11.3770,   1
  1641,'CASHLA      ', 110.0000,1,     0.000,     0.000,   9,   1,1.06077,  -6.9114,   1
  1642,'CASHLA      ', 220.0000,1,     0.000,     0.000,   9,   1,1.06017,  -3.6941,   1
  1651,'CLAHANE     ', 110.0000,1,     0.000,     0.000,   7,   1,1.06135,  -0.9274,   1
  1661,'CASTLEBA    ', 110.0000,1,     0.000,     0.000,   9,   1,1.05000, -12.7092,   1
  1681,'CARRIGAD    ', 110.0000,1,     0.000,     0.000,   3,   1,1.03911,  -3.0895,   1
  1691,'CENTRAL     ', 110.0000,1,     0.000,     0.000,   1,   1,1.05224, -10.4944,   1
  1701,'CATH_FAL    ', 110.0000,1,     0.000,     0.000,   9,   1,1.05000, -13.7112,   1
  1711,'CROMCAST    ', 110.0000,1,     0.000,     0.000,   1,   1,1.05945, -10.5611,   1
  1721,'CAHIR       ', 110.0000,1,     0.000,     0.000,   5,   1,1.05309,  -9.5269,   1
  1731,'CROMCAST    ', 110.0000,1,     0.000,     0.000,   1,   1,1.05945, -10.5611,   1
  1741,'CARRICKM    ', 110.0000,1,     0.000,     0.000,   2,   1,1.05235, -10.4532,   1
  1742,'CARRICKM    ', 220.0000,1,     0.000,     0.000,   2,   1,1.06393,  -7.6516,   1
  1761,'CLIFF       ', 110.0000,1,     0.000,     0.000,   9,   1,1.05208, -13.5383,   1
  1781,'CASTLEFA    ', 110.0000,1,     0.000,     0.000,   7,   1,1.04960,   0.1361,   5
  1801,'COOKSTOW    ', 110.0000,1,     0.000,     0.000,   1,   1,1.05244, -10.5321,   2
  1821,'CLOON       ', 110.0000,1,     0.000,     0.000,   9,   1,1.05334,  -9.1288,   1
  1841,'CRANE       ', 110.0000,1,     0.000,     0.000,   6,   1,1.06536,  -8.3064,   1
  1861,'CARICKON    ', 110.0000,1,     0.000,     0.000,   9,   1,1.04598, -11.4333,   1
  1871,'COLLEGE     ', 110.0000,1,     0.000,     0.000,   2,   1,1.05523,  -9.5908,   1
  1881,'CHARLEVI    ', 110.0000,1,     0.000,     0.000,   3,   1,1.03427,  -4.6149,   1
  1901,'CARLOW      ', 110.0000,1,     0.000,     0.000,   6,   1,1.05607,  -8.9118,   1
  1911,'CUILLEEN    ', 110.0000,1,     0.000,     0.000,   9,   1,1.06313,  -9.3874,   1
  1921,'COW CROS    ', 110.0000,1,     0.000,     0.000,   3,   1,1.03438,  -2.9368,   1
  1931,'CUNGHILL    ', 110.0000,1,     0.000,     0.000,   9,   1,1.05120, -12.6820,   4
  1941,'CUSHALIN    ', 110.0000,1,     0.000,     0.000,   8,   1,1.07500,  -7.1894,   1
  1951,'CARROWBE    ', 110.0000,1,     0.000,     0.000,   9,   1,1.03928, -13.5711,   1
  1961,'CASTLEVI    ', 110.0000,1,     0.000,     0.000,   3,   1,1.03384,  -3.2989,   1
  1971,'COOMAGEA    ', 110.0000,1,     0.000,     0.000,   7,   1,1.05000,  -0.4329,   4
  1981,'CORRACLA    ', 110.0000,1,     0.000,     0.000,   9,   1,1.04518, -15.0852,   1
  1991,'CASTLEDO    ', 110.0000,1,     0.000,     0.000,   6,   1,1.06690,  -7.4420,   1
  2001,'CULLENAG    ', 110.0000,1,     0.000,     0.000,   5,   1,1.05669,  -7.9840,   1
  2002,'CULLENAG    ', 220.0000,1,     0.000,     0.000,   5,   1,1.06477,  -4.9691,   1
  2021,'CITY WES    ', 110.0000,1,     0.000,     0.000,   1,   1,1.02950, -13.1246,   2
  2041,'CORDUFF     ', 110.0000,1,     0.000,     0.000,   2,   1,1.05573,  -9.5128,   1
  2042,'CORDUFF     ', 220.0000,1,     0.000,     0.000,   2,   1,1.07500,  -5.5713,   1
  2052,'CORDUFFB    ', 220.0000,1,     0.000,     0.000,   2,   1,1.07500,  -5.5713,   1
  2081,'DUNKETTL    ', 110.0000,4,     0.000,     0.000,   3,   1,1.00000,   0.0000,   5
  2101,'DUNDALK     ', 110.0000,1,     0.000,     0.000,  10,   1,1.03628, -13.3068,   2
  2121,'DRUMLINE    ', 110.0000,1,     0.000,     0.000,   4,   1,1.04463,  -7.0637,   1
  2131,'DROMADA     ', 110.0000,1,     0.000,     0.000,   3,   1,1.05293,   0.0392,   1
  2141,'DUNGARVA    ', 110.0000,1,     0.000,     0.000,   5,   1,1.03625,  -7.5777,   1
  2161,'DOON        ', 110.0000,1,     0.000,     0.000,   5,   1,1.04803, -10.1049,   1
  2181,'DRYBRIDG    ', 110.0000,1,     0.000,     0.000,  10,   1,1.03158, -12.7625,   1
  2202,'DUNSTOWN    ', 220.0000,1,     0.000,     0.000,   2,   1,1.06291,  -5.7372,   1
  2204,'DUNSTOWN    ', 380.0000,1,     0.000,     0.000,   2,   1,1.02963,  -3.2353,   1
  2221,'DUNMANWA    ', 110.0000,1,     0.000,     0.000,   3,   1,1.02875,  -4.5427,   1
  2231,'DERRYBRI    ', 110.0000,1,     0.000,     0.000,   4,   1,1.06456,  -6.2581,   2
  2241,'DALLOW      ', 110.0000,1,     0.000,     0.000,   5,   1,1.06307,  -7.8562,   2
  2251,'DARDISTO    ', 110.0000,1,     0.000,     0.000,   1,   1,1.06016, -10.5264,   2
  2261,'DERRYIRO    ', 110.0000,1,     0.000,     0.000,   8,   1,1.04275,  -9.5698,   1
  2281,'DALTON      ', 110.0000,1,     0.000,     0.000,   9,   1,1.04247, -11.3419,   1
  2301,'DUNFIRTH    ', 110.0000,1,     0.000,     0.000,   8,   1,1.04464,  -9.8754,   2
  2321,'DRUMKEEN    ', 110.0000,1,     0.000,     0.000,   9,   1,1.03241, -15.8056,   1
  2361,'ENNIS       ', 110.0000,1,     0.000,     0.000,   4,   1,1.04160,  -7.3727,   1
  2401,'MOUNTLUC    ', 110.0000,1,     0.000,     0.000,   8,   1,1.05523,  -7.4802,   1
  2481,'FASS EAS    ', 110.0000,1,     0.000,     0.000,   2,   1,1.04608, -10.7519,   2
  2491,'FASS WES    ', 110.0000,1,     0.000,     0.000,   2,   1,1.04589, -10.7490,   2
  2521,'FLAGFORD    ', 110.0000,1,     0.000,     0.000,   9,   1,1.04724, -11.2546,   1
  2522,'FLAGFORD    ', 220.0000,1,     0.000,     0.000,   9,   1,1.04939,  -9.1109,   1
  2541,'FRN ST A    ', 110.0000,1,     0.000,     0.000,   1,   1,1.05852, -11.4826,   2
  2551,'FRN ST B    ', 110.0000,1,     0.000,     0.000,   1,   1,1.05637, -10.7717,   2
  2561,'FIN_URBA    ', 110.0000,1,     0.000,     0.000,   2,   1,1.06645,  -8.8900,   2
  2562,'FINGLAS     ', 220.0000,1,     0.000,     0.000,   2,   1,1.07500,  -5.7754,   1
  2563,'FINGLAS2    ', 220.0000,1,     0.000,     0.000,   2,   1,1.07500,  -5.7754,   1
  2571,'FIN_RURA    ', 110.0000,1,     0.000,     0.000,   2,   1,1.06108, -10.3236,   2
  2581,'KILDONAN    ', 110.0000,1,     0.000,     0.000,   2,   1,1.05440,  -9.6779,   2
  2671,'GARVAGH     ', 110.0000,1,     0.000,     0.000,   9,   1,1.05043, -11.1723,   4
  2681,'GILRA       ', 110.0000,1,     0.000,     0.000,   9,   1,1.04921, -11.5444,   2
  2701,'GLASMORE    ', 110.0000,1,     0.000,     0.000,   1,   1,1.03887, -11.5597,   2
  2721,'GRIFFINR    ', 110.0000,1,     0.000,     0.000,   2,   1,1.04637,  -9.9019,   2
  2731,'GLANLEE     ', 110.0000,1,     0.000,     0.000,   7,   1,1.04999,  -0.4137,   4
  2741,'GREAT IS    ', 110.0000,1,     0.000,     0.000,   6,   1,1.06266,  -8.1041,   1
  2742,'GREAT IS    ', 220.0000,1,     0.000,     0.000,   6,   1,1.07500,  -4.9750,   1
  2761,'GRANGE      ', 110.0000,1,     0.000,     0.000,   1,   1,1.05891, -10.5926,   2
  2771,'GARROW      ', 110.0000,1,     0.000,     0.000,   7,   1,1.05116,  -0.6559,   7
  2780,'GALWAY      ', 110.0000,1,     0.000,     0.000,   9,   1,1.04969,  -7.5822,   1
  2781,'GALWAY      ', 110.0000,1,     0.000,     0.000,   9,   1,1.04969,  -7.5822,   1
  2801,'GOLAGH      ', 110.0000,1,     0.000,     0.000,   9,   1,1.03835, -14.6157,   4
  2821,'GORTAWEE    ', 110.0000,1,     0.000,     0.000,   9,   1,1.04373, -15.2296,   1
  2841,'GORMAN      ', 110.0000,1,     0.000,     0.000,  10,   1,1.02830, -12.9066,   1
  2842,'GORMAN      ', 220.0000,1,     0.000,     0.000,  10,   1,1.04233,  -9.8526,   1
  2852,'GLANAGOW    ', 220.0000,1,     0.000,     0.000,   3,   1,1.04045,   0.6217,   1
  2861,'GRANGE C    ', 110.0000,1,     0.000,     0.000,   1,   1,1.03166, -12.8693,   2
  2881,'GLENLARA    ', 110.0000,1,     0.000,     0.000,   3,   1,1.04757,  -3.0831,   2
  2941,'HAROLDS     ', 110.0000,1,     0.000,     0.000,   1,   1,1.05882, -11.4661,   2
  2951,'HEUSTON     ', 110.0000,1,     0.000,     0.000,   1,   1,1.05662, -10.7541,   2
  2962,'HUNTSTOW    ', 220.0000,1,     0.000,     0.000,   2,   1,1.07548,  -5.6809,   4
  2972,'HUNTSTOW    ', 220.0000,1,     0.000,     0.000,   2,   1,1.07683,  -5.3120,   4
  3061,'INISCARR    ', 110.0000,1,     0.000,     0.000,   3,   1,1.03804,  -3.3792,   1
  3081,'INCH_CIT    ', 110.0000,1,     0.000,     0.000,   2,   1,1.05706, -10.7110,   2
  3082,'INCHICOR    ', 220.0000,1,     0.000,     0.000,   2,   1,1.06698,  -8.3237,   1
  3091,'INCH_COU    ', 110.0000,1,     0.000,     0.000,   2,   1,1.03640, -12.6770,   2
  3101,'IKERRIN     ', 110.0000,1,     0.000,     0.000,   5,   1,1.05497, -10.2344,   2
  3122,'IRISHTOW    ', 220.0000,1,     0.000,     0.000,   2,   1,1.07063,  -7.5815,   1
  3200,'KNOCKRAH    ', 110.0000,1,     0.000,     0.000,   3,   1,1.03736,  -3.2132,   1
  3201,'KNOCKRAH    ', 110.0000,1,     0.000,     0.000,   3,   1,1.03736,  -3.2132,   1
  3202,'KNOCKRAH    ', 220.0000,1,     0.000,     0.000,   3,   1,1.04102,  -0.6575,   1
  3203,'KNOCKRAH    ', 220.0000,1,     0.000,     0.000,   3,   1,1.04396,  -1.4291,   1
  3209,'KNOCKRAH    ', 110.0000,1,     0.000,     0.000,   3,   1,1.03736,  -3.2132,   1
  3221,'KILBARRY    ', 110.0000,1,     0.000,     0.000,   3,   1,1.02843,  -3.8976,   1
  3241,'KILTEEL     ', 110.0000,1,     0.000,     0.000,   8,   1,1.04972, -10.9511,   2
  3251,'REAMORE     ', 110.0000,1,     0.000,     0.000,   7,   1,1.05818,  -1.2801,   1
  3261,'KILKENNY    ', 110.0000,1,     0.000,     0.000,   6,   1,1.04937, -10.8279,   1
  3281,'KILLONAN    ', 110.0000,1,     0.000,     0.000,   7,   1,1.05013,  -5.1235,   1
  3282,'KILLONAN    ', 220.0000,1,     0.000,     0.000,   7,   1,1.04545,  -3.4426,   1
  3301,'KNOCKERA    ', 110.0000,1,     0.000,     0.000,   7,   1,1.04528,  -1.7381,   1
  3321,'KNOCKUMB    ', 110.0000,1,     0.000,     0.000,  10,   1,1.01901, -13.5252,   5
  3341,'KELLIS      ', 110.0000,1,     0.000,     0.000,   6,   1,1.06204,  -8.7983,   1
  3342,'KELLIS      ', 220.0000,1,     0.000,     0.000,   6,   1,1.05515,  -6.4005,   1
  3361,'KILTOY      ', 110.0000,1,     0.000,     0.000,   9,   1,1.02685, -16.5396,   5
  3381,'KINNEGAD    ', 110.0000,1,     0.000,     0.000,   8,   1,1.04146,  -9.8642,   1
  3391,'KNOCKACU    ', 110.0000,1,     0.000,     0.000,   3,   1,1.05000,  -2.8627,   1
  3401,'KILLOTER    ', 110.0000,1,     0.000,     0.000,   5,   1,1.05515,  -8.4836,   1
  3421,'KILMORE     ', 110.0000,1,     0.000,     0.000,   1,   1,1.05944, -10.5607,   2
  3431,'KILMAHUD    ', 110.0000,1,     0.000,     0.000,   1,   1,1.03138, -12.8871,   1
  3501,'LANESBOR    ', 110.0000,1,     0.000,     0.000,   9,   1,1.05000,  -9.3862,   1
  3521,'LOUTHA      ', 110.0000,1,     0.000,     0.000,  10,   1,1.06125, -12.3010,   1
  3522,'LOUTH       ', 220.0000,1,     0.000,     0.000,  10,   1,1.03838, -10.1512,   1
  3541,'LIMERICK    ', 110.0000,1,     0.000,     0.000,   7,   1,1.04441,  -5.0581,   1
  3561,'LISDRUM     ', 110.0000,1,     0.000,     0.000,  10,   1,1.05453, -14.6721,   1
  3581,'LETTERKE    ', 110.0000,1,     0.000,     0.000,   9,   1,1.02683, -16.5393,   1
  3601,'LIBERTY     ', 110.0000,1,     0.000,     0.000,   3,   1,1.02680,  -3.8932,   2
  3611,'LIBERTY     ', 110.0000,1,     0.000,     0.000,   3,   1,1.02709,  -3.8850,   2
  3621,'LISHEEN     ', 110.0000,1,     0.000,     0.000,   5,   1,1.05000, -10.8625,   5
  3641,'LODGEWOO    ', 110.0000,1,     0.000,     0.000,   6,   1,1.06728,  -7.5151,   1
  3642,'LODGEWOO    ', 220.0000,1,     0.000,     0.000,   6,   1,1.06899,  -6.5983,   1
  3651,'CRORY       ', 110.0000,1,     0.000,     0.000,   5,   1,1.06728,  -7.5151,   1
  3751,'MISERY H    ', 110.0000,1,     0.000,     0.000,   1,   1,1.05928, -11.4273,   2
  3761,'MACETOWN    ', 110.0000,1,     0.000,     0.000,   1,   1,1.05347,  -9.7276,   1
  3781,'MCDERMOT    ', 110.0000,1,     0.000,     0.000,   1,   1,1.06417,  -9.1054,   2
  3801,'MIDLETON    ', 110.0000,1,     0.000,     0.000,   3,   1,1.03181,  -3.3561,   1
  3821,'MEATH HI    ', 110.0000,1,     0.000,     0.000,  10,   1,1.02701, -13.0510,   2
  3841,'MAYNOOTH    ', 110.0000,1,     0.000,     0.000,   2,   1,1.04886,  -9.7663,   1
  3842,'MAYNOOTH    ', 220.0000,1,     0.000,     0.000,   2,   1,1.05888,  -7.8155,   1
  3851,'MAYNOOTH    ', 110.0000,1,     0.000,     0.000,   2,   1,1.05306,  -9.2062,   1
  3852,'MAYNOOTH    ', 220.0000,1,     0.000,     0.000,   2,   1,1.06573,  -6.7541,   1
  3861,'MILLTOWN    ', 110.0000,1,     0.000,     0.000,   1,   1,1.05945, -11.3947,   2
  3871,'MILLTOWN    ', 110.0000,1,     0.000,     0.000,   1,   1,1.05313, -10.8955,   2
  3881,'MACROOM     ', 110.0000,1,     0.000,     0.000,   3,   1,1.03947,  -3.0562,   1
  3901,'MONETEEN    ', 110.0000,1,     0.000,     0.000,   7,   1,1.04294,  -4.1507,   1
  3934,'MNYPG1      ', 380.0000,1,     0.000,     6.000,   4,   1,1.05000,   3.3663,   1
  3941,'MONEYPOI    ', 110.0000,1,     0.000,     0.000,   4,   1,1.03426,  -7.7861,   1
  3942,'MONEYPOI    ', 220.0000,1,     0.000,     0.000,   4,   1,1.06859,   0.7080,   1
  3944,'MNYPG3      ', 380.0000,1,     0.000,     6.000,   4,   1,1.05000,   3.3663,   1
  3954,'MNYPG2      ', 380.0000,1,     0.000,     6.000,   4,   1,1.05000,   4.1626,   1
  3961,'MARINA      ', 110.0000,1,     0.000,     0.000,   3,   1,1.02719,  -3.8727,   1
  3981,'MUNGRET     ', 110.0000,1,     0.000,     0.000,   7,   1,1.04271,  -4.1638,   5
  3991,'MUNGRET     ', 110.0000,1,     0.000,     0.000,   7,   1,1.04272,  -4.1632,   5
  4001,'MULLINGA    ', 110.0000,1,     0.000,     0.000,   9,   1,1.05062, -12.2761,   1
...
0 / END OF BUS DATA, BEGIN LOAD DATA
    10,'LD',1,   2,   1,    70.140,    11.640,     0.000,     0.000,     0.000,     0.000,   2
    11,'LD',1,   2,   1,    43.490,     8.640,     0.000,     0.000,     0.000,     0.000,   2
    12,'LD',1,   1,   1,    57.240,    18.820,     0.000,     0.000,     0.000,     0.000,   2
    13,'LD',1,   1,   1,    67.280,    22.110,     0.000,     0.000,     0.000,     0.000,   2
    14,'LD',1,   2,   1,    49.560,    16.290,     0.000,     0.000,     0.000,     0.000,   2
    15,'LD',1,   2,   1,    64.710,    21.260,     0.000,     0.000,     0.000,     0.000,   2
  1041,'LD',1,   3,   1,     0.750,     0.430,     0.000,     0.000,     0.000,     0.000,   2
  1101,'I ',1,   5,   2,    11.000,     6.000,     0.000,     0.000,     0.000,     0.000,   5
  1101,'MI',1,   5,   2,     5.620,    -1.020,     0.000,     0.000,     0.000,     0.000,   5
  4341,'I ',1,   3,   2,     1.300,     0.390,     0.000,     0.000,     0.000,     0.000,   5
  4901,'I ',1,   6,   2,     2.290,     0.800,     0.000,     0.000,     0.000,     0.000,   5
 10204,'LD',1,   4,   1,    28.930,    11.480,     0.000,     0.000,     0.000,     0.000,   2
 10205,'LD',1,   4,   1,    28.930,    11.480,     0.000,     0.000,     0.000,     0.000,   2
 10470,'HL',1,   3,   1,     8.750,     3.150,     0.000,     0.000,     0.000,     0.000,   1
 10471,'HL',0,   3,   1,    11.990,     4.310,     0.000,     0.000,     0.000,     0.000,   3
 10602,'LD',1,   9,   1,     3.320,     1.290,     0.000,     0.000,     0.000,     0.000,   2
 10801,'LD',1,   7,   1,     5.760,     1.190,     0.000,     0.000,     0.000,     0.000,   2
 11201,'LD',1,   6,   1,     6.360,     2.090,     0.000,     0.000,     0.000,     0.000,   2
 11204,'LD',1,   6,   1,    14.340,     4.760,     0.000,     0.000,     0.000,     0.000,   2
 11404,'LD',1,   9,   1,    65.620,    23.460,     0.000,     0.000,     0.000,     0.000,   2
 12001,'LD',1,   1,   1,    16.660,     1.900,     0.000,     0.000,     0.000,     0.000,   2
 12201,'LD',1,   8,   1,    16.970,     2.590,     0.000,     0.000,     0.000,     0.000,   2
 12702,'LD',1,  10,   1,    15.580,     1.230,     0.000,     0.000,     0.000,     0.000,   2
 12804,'LD',1,   3,   1,    12.120,     0.710,     0.000,     0.000,     0.000,     0.000,   2
 13001,'LD',1,   6,   1,    13.330,     1.980,     0.000,     0.000,     0.000,     0.000,   2
 13204,'LD',1,   8,   1,    23.950,     7.980,     0.000,     0.000,     0.000,     0.000,   2
 13404,'LD',1,   9,   1,    24.320,     7.070,     0.000,     0.000,     0.000,     0.000,   2
 13501,'I ',1,   8,   2,     9.500,     2.850,     0.000,     0.000,     0.000,     0.000,   5
 13601,'I ',1,   5,   2,     5.290,     1.460,     0.000,     0.000,     0.000,     0.000,   5
 13601,'MI',1,   5,   2,     3.920,     1.300,     0.000,     0.000,     0.000,     0.000,   5
 13604,'LD',1,   5,   1,    12.890,     3.480,     0.000,     0.000,     0.000,     0.000,   2
 13802,'LD',1,   3,   1,    17.720,     7.230,     0.000,     0.000,     0.000,     0.000,   2
 13804,'LD',1,   3,   1,    14.320,     2.310,     0.000,     0.000,     0.000,     0.000,   2
 14004,'LD',1,   9,   1,     7.810,     2.550,     0.000,     0.000,     0.000,     0.000,   2
 14204,'LD',1,   1,   1,    71.340,    11.590,     0.000,     0.000,     0.000,     0.000,   2
 14401,'LD',1,   3,   1,     5.080,     0.980,     0.000,     0.000,     0.000,     0.000,   2
 14404,'LD',1,   3,   1,    25.580,     9.160,     0.000,     0.000,     0.000,     0.000,   2
 14502,'I ',1,   1,   2,    23.750,     7.800,     0.000,     0.000,     0.000,     0.000,   5
 14604,'LD',1,   5,   1,    24.480,     7.110,     0.000,     0.000,     0.000,     0.000,   2
 14804,'LD',1,   5,   1,    39.960,     8.130,     0.000,     0.000,     0.000,     0.000,   2
 15001,'I ',1,   3,   2,     4.590,     1.700,     0.000,     0.000,     0.000,     0.000,   5
 15001,'MI',1,   3,   2,     1.580,     0.150,     0.000,     0.000,     0.000,     0.000,   5
 15402,'LD',1,   6,   1,    14.640,     4.810,     0.000,     0.000,     0.000,     0.000,   2
 15801,'LD',1,   1,   1,    14.090,     3.590,     0.000,     0.000,     0.000,     0.000,   2
 16202,'LD',1,   3,   1,    10.830,     0.880,     0.000,     0.000,     0.000,     0.000,   2
 16604,'LD',1,   9,   1,    27.700,     6.530,     0.000,     0.000,     0.000,     0.000,   2
 16901,'LD',1,   1,   1,     5.850,     1.740,     0.000,     0.000,     0.000,     0.000,   2
 17004,'LD',1,   9,   1,    19.730,     6.490,     0.000,     0.000,     0.000,     0.000,   2
 17204,'LD',1,   5,   1,    23.320,     4.550,     0.000,     0.000,     0.000,     0.000,   2
 17404,'LD',1,   2,   1,    78.180,    12.790,     0.000,     0.000,     0.000,     0.000,   2
 17802,'I ',1,   7,   2,    49.000,    14.700,     0.000,     0.000,     0.000,     0.000,   5
 18001,'LD',1,   1,   1,     3.730,     1.210,     0.000,     0.000,     0.000,     0.000,   2
 18004,'LD',1,   1,   1,    76.880,    20.780,     0.000,     0.000,     0.000,     0.000,   2
 18204,'LD',1,   9,   1,    25.340,     8.490,     0.000,     0.000,     0.000,     0.000,   2
 18402,'LD',1,   6,   1,    15.640,     3.780,     0.000,     0.000,     0.000,     0.000,   2
 18404,'LD',1,   6,   1,    17.930,     5.020,     0.000,     0.000,     0.000,     0.000,   2
 18604,'LD',1,   9,   1,    30.570,     6.290,     0.000,     0.000,     0.000,     0.000,   2
 18701,'LD',1,   2,   1,    22.090,     4.080,     0.000,     0.000,     0.000,     0.000,   2
 18804,'LD',1,   3,   1,    18.950,     5.630,     0.000,     0.000,     0.000,     0.000,   2
 19004,'LD',1,   6,   1,    51.750,    14.000,     0.000,     0.000,     0.000,     0.000,   2
 19204,'LD',1,   3,   1,    13.080,     3.230,     0.000,     0.000,     0.000,     0.000,   2
 19471,'HL',1,   8,   1,    11.970,     4.300,     0.000,     0.000,     0.000,     0.000,   4
 19504,'LD',1,   9,   1,    21.460,     4.660,     0.000,     0.000,     0.000,     0.000,   2
 19601,'LD',1,   3,   1,    21.720,     5.190,     0.000,     0.000,     0.000,     0.000,   2
 20201,'LD',1,   1,   1,    22.920,     7.460,     0.000,     0.000,     0.000,     0.000,   2
 21004,'LD',1,  10,   1,    65.330,    14.480,     0.000,     0.000,     0.000,     0.000,   2
 21204,'LD',1,   4,   1,    26.760,     7.000,     0.000,     0.000,     0.000,     0.000,   2
 21404,'LD',1,   5,   1,    41.740,     8.640,     0.000,     0.000,     0.000,     0.000,   2
 21604,'LD',1,   5,   1,    26.400,     6.490,     0.000,     0.000,     0.000,     0.000,   2
 21804,'LD',1,  10,   1,    83.720,    20.290,     0.000,     0.000,     0.000,     0.000,   2
 22204,'LD',1,   3,   1,    35.680,     9.340,     0.000,     0.000,     0.000,     0.000,   2
 22404,'LD',1,   5,   1,    17.110,     4.080,     0.000,     0.000,     0.000,     0.000,   2
 22501,'I ',1,   1,   2,    10.450,     3.434,     0.000,     0.000,     0.000,     0.000,   5
 22671,'HL',0,   8,   1,     0.300,     0.100,     0.000,     0.000,     0.000,     0.000,   1
 22672,'HL',0,   8,   1,     0.300,     0.100,     0.000,     0.000,     0.000,     0.000,   1
 22804,'LD',1,   9,   1,    23.970,     6.110,     0.000,     0.000,     0.000,     0.000,   2
 23001,'LD',1,   8,   1,     9.120,     0.620,     0.000,     0.000,     0.000,     0.000,   2
 23604,'LD',1,   4,   1,    57.980,    12.660,     0.000,     0.000,     0.000,     0.000,   2
 24804,'LD',1,   2,   1,    56.170,    21.290,     0.000,     0.000,     0.000,     0.000,   2
 25604,'LD',1,   2,   1,    73.740,    14.410,     0.000,     0.000,     0.000,     0.000,   2
 26802,'I ',1,   9,   2,    10.440,     3.130,     0.000,     0.000,     0.000,     0.000,   5
 26802,'MI',1,   9,   2,     0.060,     0.020,     0.000,     0.000,     0.000,     0.000,   5
 27004,'LD',1,   1,   1,    68.650,    24.090,     0.000,     0.000,     0.000,     0.000,   2
 27204,'LD',1,   2,   1,    64.520,    20.310,     0.000,     0.000,     0.000,     0.000,   2
 27404,'LD',1,   6,   1,    16.870,     5.910,     0.000,     0.000,     0.000,     0.000,   2
 27471,'HL',0,   6,   1,     2.990,     1.070,     0.000,     0.000,     0.000,     0.000,   3
 27472,'HL',0,   6,   1,     2.720,     0.980,     0.000,     0.000,     0.000,     0.000,   3
 27473,'HL',0,   6,   1,     7.980,     2.870,     0.000,     0.000,     0.000,     0.000,   3
 27474,'HL',0,   6,   1,     8.490,     3.050,     0.000,     0.000,     0.000,     0.000,   1
 27604,'LD',1,   1,   1,    54.530,    16.210,     0.000,     0.000,     0.000,     0.000,   2
 27801,'LD',1,   9,   1,    20.330,     6.110,     0.000,     0.000,     0.000,     0.000,   2
 27804,'LD',1,   9,   1,    64.690,    19.450,     0.000,     0.000,     0.000,     0.000,   2
 28201,'I ',1,   9,   2,    20.900,     6.270,     0.000,     0.000,     0.000,     0.000,   5
 28204,'LD',1,   9,   1,    10.830,     3.070,     0.000,     0.000,     0.000,     0.000,   2
 28571,'HL',1,   3,   1,     4.200,     1.510,     0.000,     0.000,     0.000,     0.000,   1
 28601,'I ',1,   1,   2,     9.000,     2.700,     0.000,     0.000,     0.000,     0.000,   5
 28601,'LD',1,   1,   1,    10.460,     1.280,     0.000,     0.000,     0.000,     0.000,   2
 28604,'LD',1,   1,   1,    53.120,     9.820,     0.000,     0.000,     0.000,     0.000,   2
 28611,'I ',1,   1,   2,     9.000,     2.700,     0.000,     0.000,     0.000,     0.000,   5
 28804,'LD',1,   3,   1,    16.370,     3.940,     0.000,     0.000,     0.000,     0.000,   2
 29401,'LD',1,   1,   1,    16.150,     5.030,     0.000,     0.000,     0.000,     0.000,   2
 29501,'LD',1,   1,   1,     5.320,     1.680,     0.000,     0.000,     0.000,     0.000,   2
 29672,'HL',1,   2,   1,     6.690,     2.410,     0.000,     0.000,     0.000,     0.000,   4
 30804,'LD',1,   2,   1,    47.630,    15.730,     0.000,     0.000,     0.000,     0.000,   2
 31004,'LD',1,   5,   1,    25.790,     7.670,     0.000,     0.000,     0.000,     0.000,   2
 31271,'HL',1,   2,   1,     5.210,     1.870,     0.000,     0.000,     0.000,     0.000,   4
 32201,'LD',1,   3,   1,    15.900,     2.460,     0.000,     0.000,     0.000,     0.000,   2
 32204,'LD',1,   3,   1,    71.890,    13.070,     0.000,     0.000,     0.000,     0.000,   2
 32404,'LD',1,   8,   1,    31.990,    12.680,     0.000,     0.000,     0.000,     0.000,   2
 32604,'LD',1,   6,   1,    60.590,    23.300,     0.000,     0.000,     0.000,     0.000,   2
 33004,'LD',1,   7,   1,    32.360,     7.640,     0.000,     0.000,     0.000,     0.000,   2
 33201,'I ',1,  10,   2,    23.000,     6.900,     0.000,     0.000,     0.000,     0.000,   5
 33201,'MI',1,  10,   2,     6.440,     1.930,     0.000,     0.000,     0.000,     0.000,   5
 33801,'I ',1,   8,   2,    10.220,     3.060,     0.000,     0.000,     0.000,     0.000,   5
 33801,'MI',1,   8,   2,     1.500,     0.450,     0.000,     0.000,     0.000,     0.000,   5
 34001,'LD',1,   5,   1,    12.740,     3.210,     0.000,     0.000,     0.000,     0.000,   2
 34201,'LD',1,   1,   1,    20.520,     5.600,     0.000,     0.000,     0.000,     0.000,   2
 34301,'I ',1,   1,   2,    23.750,     7.120,     0.000,     0.000,     0.000,     0.000,   5
 35004,'LD',1,   9,   1,    11.870,     4.230,     0.000,     0.000,     0.000,     0.000,   2
 35074,'HL',1,   9,   1,     9.270,     3.330,     0.000,     0.000,     0.000,     0.000,   3
 35404,'LD',1,   7,   1,    71.850,    12.590,     0.000,     0.000,     0.000,     0.000,   2
 35604,'LD',1,  10,   1,    26.550,     6.660,     0.000,     0.000,     0.000,     0.000,   2
 35804,'LD',1,   9,   1,    65.280,    13.100,     0.000,     0.000,     0.000,     0.000,   2
 36001,'LD',1,   3,   1,    22.170,     5.950,     0.000,     0.000,     0.000,     0.000,   2
 36201,'I ',1,   5,   2,    16.600,     3.600,     0.000,     0.000,     0.000,     0.000,   5
 36201,'MI',1,   5,   2,     2.390,     2.100,     0.000,     0.000,     0.000,     0.000,   5
 37501,'LD',1,   1,   1,    18.860,     2.620,     0.000,     0.000,     0.000,     0.000,   2
 37601,'LD',1,   1,   1,    25.210,     4.970,     0.000,     0.000,     0.000,     0.000,   2
 37602,'I ',1,   1,   2,     5.000,     1.500,     0.000,     0.000,     0.000,     0.000,   5
 37602,'MI',1,   1,   2,     5.440,     1.630,     0.000,     0.000,     0.000,     0.000,   5
 38001,'LD',1,   3,   1,    14.490,     2.220,     0.000,     0.000,     0.000,     0.000,   2
 38004,'LD',1,   3,   1,    18.270,     4.190,     0.000,     0.000,     0.000,     0.000,   2
 38204,'LD',1,  10,   1,    46.480,    19.030,     0.000,     0.000,     0.000,     0.000,   2
 38601,'LD',1,   1,   1,     8.640,     1.380,     0.000,     0.000,     0.000,     0.000,   2
 38701,'LD',1,   1,   1,    12.230,     3.170,     0.000,     0.000,     0.000,     0.000,   2
 38804,'LD',1,   3,   1,    21.950,     4.160,     0.000,     0.000,     0.000,     0.000,   2
 39471,'HL',1,   4,   1,    17.910,     6.440,     0.000,     0.000,     0.000,     0.000,   3
 39472,'HL',1,   4,   1,    17.910,     6.440,     0.000,     0.000,     0.000,     0.000,   3
 39473,'HL',1,   4,   1,    17.910,     6.440,     0.000,     0.000,     0.000,     0.000,   3
 39601,'LD',1,   3,   1,    15.920,     4.660,     0.000,     0.000,     0.000,     0.000,   2
 39675,'HL',0,   3,   1,     5.000,     1.800,     0.000,     0.000,     0.000,     0.000,   3
 39801,'I ',1,   7,   2,    22.000,     6.600,     0.000,     0.000,     0.000,     0.000,   5
 39801,'MI',1,   7,   2,     1.500,     0.450,     0.000,     0.000,     0.000,     0.000,   5
 40001,'LD',1,   9,   1,    13.290,     4.200,     0.000,     0.000,     0.000,     0.000,   2
 40004,'LD',1,   9,   1,    35.560,     8.710,     0.000,     0.000,     0.000,     0.000,   2
 40204,'LD',1,   3,   1,    21.380,     5.520,     0.000,     0.000,     0.000,     0.000,   2
 40404,'LD',1,   9,   1,    26.330,     4.650,     0.000,     0.000,     0.000,     0.000,   2
 40602,'I ',1,  10,   2,     5.180,     1.550,     0.000,     0.000,     0.000,     0.000,   5
 40602,'MI',1,  10,   2,     2.420,     0.730,     0.000,     0.000,     0.000,     0.000,   5
 40801,'LD',1,   8,   1,    11.760,     2.050,     0.000,     0.000,     0.000,     0.000,   2
 41002,'I ',1,   1,   2,    18.000,     5.900,     0.000,     0.000,     0.000,     0.000,   5
 41102,'I ',1,   1,   2,    24.000,    11.630,     0.000,     0.000,     0.000,     0.000,   5
 42004,'LD',1,   8,   1,    38.290,     8.760,     0.000,     0.000,     0.000,     0.000,   2
 42102,'LD',1,   1,   1,    14.080,     2.200,     0.000,     0.000,     0.000,     0.000,   2
 42204,'LD',1,  10,   1,    66.190,    15.500,     0.000,     0.000,     0.000,     0.000,   2
 42501,'HL',0,   6,   1,     3.970,     1.430,     0.000,     0.000,     0.000,     0.000,   1
 42604,'LD',1,   7,   1,    26.580,     8.770,     0.000,     0.000,     0.000,     0.000,   2
 42802,'I ',1,   1,   2,    26.000,     7.800,     0.000,     0.000,     0.000,     0.000,   5
 43604,'LD',1,   7,   1,    25.280,     4.890,     0.000,     0.000,     0.000,     0.000,   2
 44001,'LD',1,   1,   1,    21.880,     2.550,     0.000,     0.000,     0.000,     0.000,   2
 44804,'LD',1,   8,   1,    51.030,    14.680,     0.000,     0.000,     0.000,     0.000,   2
 44901,'LD',1,   1,   1,    19.500,     2.000,     0.000,     0.000,     0.000,     0.000,   2
 45001,'I ',1,  10,   2,    29.000,     9.100,     0.000,     0.000,     0.000,     0.000,   5
 45001,'MI',1,  10,   2,     3.290,     0.580,     0.000,     0.000,     0.000,     0.000,   5
 45101,'LD',1,   1,   1,    14.400,     2.060,     0.000,     0.000,     0.000,     0.000,   2
 46210,'I ',1,   2,   2,    34.840,    10.450,     0.000,     0.000,     0.000,     0.000,   5
 46214,'I ',1,   2,   2,    34.840,    10.450,     0.000,     0.000,     0.000,     0.000,   5
 46224,'I ',1,   2,   2,    34.840,    10.450,     0.000,     0.000,     0.000,     0.000,   5
 46501,'LD',1,   1,   1,     0.860,     0.280,     0.000,     0.000,     0.000,     0.000,   2
 46804,'LD',1,   7,   1,    23.800,     6.840,     0.000,     0.000,     0.000,     0.000,   2
 47004,'LD',1,   9,   1,    30.850,     9.270,     0.000,     0.000,     0.000,     0.000,   2
 47402,'I ',1,   2,   2,    15.200,     4.560,     0.000,     0.000,     0.000,     0.000,   5
 47601,'LD',1,   3,   1,     4.580,     1.060,     0.000,     0.000,     0.000,     0.000,   2
 49001,'I ',1,   6,   2,     2.290,     0.680,     0.000,     0.000,     0.000,     0.000,   5
 49474,'HL',1,   5,   1,    13.240,     4.760,     0.000,     0.000,     0.000,     0.000,   3
 49501,'LD',1,   9,   1,    25.320,     3.080,     0.000,     0.000,     0.000,     0.000,   2
 49504,'LD',1,   9,   1,    37.300,    11.190,     0.000,     0.000,     0.000,     0.000,   2
 49604,'LD',1,  10,   1,    54.770,    16.520,     0.000,     0.000,     0.000,     0.000,   2
 49804,'LD',1,   9,   1,    58.600,    12.800,     0.000,     0.000,     0.000,     0.000,   2
 50004,'LD',1,   9,   1,    21.390,     5.670,     0.000,     0.000,     0.000,     0.000,   2
 50276,'HL',1,   2,   1,     9.410,     3.380,     0.000,     0.000,     0.000,     0.000,   3
 50301,'LD',1,   1,   1,    12.120,     3.980,     0.000,     0.000,     0.000,     0.000,   2
 50573,'HL',1,   7,   1,     0.980,     0.350,     0.000,     0.000,     0.000,     0.000,   4
 50574,'HL',1,   7,   1,     0.980,     0.350,     0.000,     0.000,     0.000,     0.000,   4
 50604,'LD',1,   6,   1,    20.720,     4.620,     0.000,     0.000,     0.000,     0.000,   2
 50901,'LD',1,   7,   1,    15.430,     2.390,     0.000,     0.000,     0.000,     0.000,   2
 51301,'LD',1,   1,   1,    10.890,     1.590,     0.000,     0.000,     0.000,     0.000,   2
 51471,'HL',0,   7,   1,     3.000,     1.080,     0.000,     0.000,     0.000,     0.000,   3
 51472,'HL',0,   7,   1,     3.000,     1.080,     0.000,     0.000,     0.000,     0.000,   3
 51473,'HL',0,   7,   1,    15.300,     5.500,     0.000,     0.000,     0.000,     0.000,   3
 51474,'HL',0,   7,   1,    15.300,     5.500,     0.000,     0.000,     0.000,     0.000,   3
 51771,'HL',1,   4,   1,     5.850,     2.100,     0.000,     0.000,     0.000,     0.000,   4
 51801,'LD',1,   3,   1,    16.040,     5.360,     0.000,     0.000,     0.000,     0.000,   2
 51804,'LD',1,   3,   1,    51.570,    12.850,     0.000,     0.000,     0.000,     0.000,   2
 52204,'LD',1,   4,   1,    15.410,     4.880,     0.000,     0.000,     0.000,     0.000,   2
 52476,'HL',0,   9,   1,     0.300,     0.100,     0.000,     0.000,     0.000,     0.000,   3
 52477,'HL',0,   9,   1,     0.300,     0.100,     0.000,     0.000,     0.000,     0.000,   3
 52604,'LD',1,   7,   1,    26.670,     6.330,     0.000,     0.000,     0.000,     0.000,   2
 52804,'LD',1,   7,   1,    45.420,    11.200,     0.000,     0.000,     0.000,     0.000,   2
 53004,'LD',1,   5,   1,    25.740,     6.180,     0.000,     0.000,     0.000,     0.000,   2
...
0 / END OF LOAD DATA, BEGIN GENERATOR DATA
 10271,'1 ',    21.000,     5.837,    15.000,    -7.000,1.05000,  1021,    34.000,   0.00000,   0.22000,   0.00000,   0.00000,1.00000,1,   15.0,    21.000,     5.000,   3,1.0000
 10272,'2 ',    22.000,     5.837,    15.000,    -7.000,1.05000,  1021,    34.000,   0.00000,   0.22000,   0.00000,   0.00000,1.00000,1,   15.0,    22.000,     5.000,   3,1.0000
 10273,'3 ',    19.000,    -2.507,    15.000,    -7.000,1.05000,  1021,    34.000,   0.00000,   0.22000,   0.00000,   0.00000,1.00000,0,   15.0,    19.000,     5.000,   3,1.0000
 10274,'4 ',    24.000,     5.837,    15.000,    -7.000,1.05000,  1021,    34.000,   0.00000,   0.22000,   0.00000,   0.00000,1.00000,1,   15.0,    24.000,     5.000,   3,1.0000
 10275,'3 ',     2.321,     0.000,     0.000,     0.000,1.05000,     0,     8.350,   0.00920,   0.16210,   0.00000,   0.00000,1.00000,1,    2.3,     7.500,     0.000,   7,1.0000
 10276,'2 ',     0.204,     0.000,     0.000,     0.000,1.05000,     0,     0.850,   0.00730,   0.13500,   0.00000,   0.00000,1.00000,1,    0.2,     0.660,     0.000,   7,1.0000
 10470,'1 ',   300.000,   -32.443,   270.000,  -170.000,1.04000,  1062,   500.000,   0.00270,   0.18000,   0.00000,   0.00000,1.00000,1,  250.0,   443.000,   222.000,   1,1.0000
 10471,'1 ',   270.000,     0.000,   159.000,   -75.000,1.07500,  1062,   318.800,   0.00000,   0.22500,   0.00000,   0.00000,1.00000,0,  153.0,   270.000,    40.000,   3,1.0000
 10472,'11',    90.000,     0.000,    60.000,   -30.000,1.07500,  1062,   100.900,   0.00000,   0.12500,   0.00000,   0.00000,1.00000,0,   60.0,    90.000,    13.000,   3,1.0000
 10473,'12',    90.000,     0.000,    60.000,   -30.000,1.07500,  1062,   100.900,   0.00000,   0.12500,   0.00000,   0.00000,1.00000,0,   60.0,    90.000,    13.000,   3,1.0000
 10474,'14',    90.000,     0.000,    60.000,   -30.000,1.07500,  1062,   100.900,   0.00000,   0.12500,   0.00000,   0.00000,1.00000,0,   60.0,    90.000,    13.000,   3,1.0000
 10671,'2 ',     1.486,    -1.940,    -1.940,    -1.940,1.04000,     0,     4.800,   0.02040,   0.33060,   0.00000,   0.00000,1.00000,1,    1.5,     4.800,     0.000,   7,1.0000
 10672,'3 ',     1.547,    -2.000,    -2.000,    -2.000,1.04000,     0,     6.000,   0.02040,   0.33060,   0.00000,   0.00000,1.00000,1,    1.6,     5.000,     0.000,   7,1.0000
 10673,'1 ',     0.371,    -0.480,    -0.480,    -0.480,1.05000,     0,     1.200,   0.02040,   0.33060,   0.00000,   0.00000,1.00000,1,    0.4,     1.200,     0.000,   7,1.0000
 10674,'5 ',     1.424,    -1.770,    -1.770,    -2.300,1.04000,     0,     4.600,   0.02570,   0.73700,   0.00000,   0.00000,1.00000,1,    1.7,     4.600,     0.000,   7,1.0000
 11204,'1 ',     1.000,     0.000,     0.000,     0.000,1.00000,     0,     1.600,   0.00000,   0.20000,   0.01000,   0.06000,1.00000,0,  100.0,     1.000,     0.000,   2,1.0000
 11271,'1 ',     7.799,     0.000,     0.000,     0.000,1.04000,     0,    28.000,   0.00320,   0.12400,   0.00000,   0.00000,1.00000,1,    7.9,    25.200,     0.000,   7,1.0000
 11371,'1 ',    15.784,   -20.000,    20.000,   -20.000,1.05000,  2131,    66.000,   0.00000,   0.57860,   0.00000,   0.00000,1.00000,1,   20.0,    51.000,     0.000,   7,1.0000
 12371,'1 ',     9.749,    -7.000,     7.000,    -7.000,1.05000,  1231,    32.000,   0.02570,   0.73700,   0.00000,   0.00000,1.00000,1,    7.0,    31.500,     0.000,   7,1.0000
 12372,'2 ',     3.250,     0.000,     0.000,     0.000,1.05000,  1231,    10.000,   0.02570,   0.73700,   0.00000,   0.00000,1.00000,1,    3.5,    10.500,     0.000,   7,1.0000
 12571,'1 ',     6.019,     0.000,     0.000,     0.000,1.05000,  1251,    25.050,   0.00920,   0.16210,   0.00000,   0.00000,1.00000,1,    6.4,    19.450,     0.000,   7,1.0000
 12572,'TW',     0.928,     0.990,     0.990,    -0.990,1.05000,  1251,     3.340,   0.00920,   0.16210,   0.00000,   0.00000,1.00000,1,    1.0,     3.000,     0.000,   7,1.0000
 12573,'TW',     2.785,     2.960,     2.960,    -2.960,1.05000,  1251,    10.020,   0.00920,   0.16210,   0.00000,   0.00000,1.00000,1,    3.0,     9.000,     0.000,   7,1.0000
 12872,'DW',     2.600,     0.000,     0.000,    -2.760,1.05000,  1281,     9.200,   0.02570,   0.73700,   0.00000,   0.00000,1.00000,1,    2.6,     8.400,     0.000,   7,1.0000
 12873,'1 ',     6.050,     0.000,     0.000,     0.000,1.05000,  1281,    20.700,   0.02570,   0.73700,   0.00000,   0.00000,1.00000,1,    6.1,    19.550,     0.000,   7,1.0000
 12874,'1 ',     2.631,     0.000,     0.000,     0.000,1.05000,  1281,     8.500,   0.00210,   0.08600,   0.00000,   0.00000,1.00000,1,    2.7,     8.500,     0.000,   7,1.0000
 13434,'10',     4.300,     0.000,     0.000,     0.000,1.00000,     0,     4.500,   0.00000,   0.20000,   0.00000,   0.10000,1.00000,1,    1.0,     4.300,     0.000,   1,1.0000
 13471,'1 ',     0.204,     0.000,     0.000,     0.000,1.05000,  1341,     0.660,   0.02040,   0.33060,   0.00000,   0.00000,1.00000,1,    0.2,     0.660,     0.000,   7,1.0000
 13472,'DW',     0.789,     0.000,     0.000,    -0.840,1.05000,  1341,     2.700,   0.03020,   0.86600,   0.00000,   0.00000,1.00000,1,    0.8,     2.550,     0.000,   7,1.0000
 13473,'4 ',     3.095,     0.000,     0.000,     0.000,1.05000,  1341,    10.000,   0.00320,   0.12400,   0.00000,   0.00000,1.00000,1,    4.7,    10.000,     0.000,   7,1.0000
 13474,'5 ',     1.857,     0.000,     0.000,     0.000,1.05000,  1341,     6.250,   0.00900,   0.16600,   0.00000,   0.00000,1.00000,1,    1.9,     6.000,     0.000,   7,1.0000
 13475,'6 ',     2.368,     0.000,     0.000,     0.000,1.05000,  1341,     7.650,   0.00730,   0.13500,   0.00000,   0.00000,1.00000,1,    2.4,     7.650,     0.000,   7,1.0000
 13476,'3 ',     3.683,     0.000,     0.000,     0.000,1.05000,  1341,    11.500,   0.02570,   0.73700,   0.00000,   0.00000,1.00000,1,    3.7,    11.900,     0.000,   7,1.0000
 13477,'2 ',     0.789,     0.000,     0.000,     0.000,1.05000,  1341,     2.700,   0.03020,   0.86600,   0.00000,   0.00000,1.00000,1,    0.8,     2.550,     0.000,   7,1.0000
 13479,'9 ',     1.052,     0.000,     0.000,     0.000,1.00000,     0,     3.400,   0.00730,   0.13500,   0.00000,   0.00000,1.00000,1,    1.1,     3.400,     0.000,   7,1.0000
 14073,'3 ',     1.996,    -2.400,    -2.400,    -2.400,1.04000,     0,     7.611,   0.02040,   0.33060,   0.00000,   0.00000,1.00000,1,    2.0,     6.450,     0.000,   7,1.0000
 14471,'1 ',     1.238,     0.000,     0.000,     0.000,1.04000,     0,     4.000,   0.00320,   0.12400,   0.00000,   0.00000,1.00000,1,    1.4,     4.000,     0.000,   7,1.0000
 14472,'1 ',     0.085,     0.000,     0.000,     0.000,1.00000,     0,     0.850,   0.00210,   0.08600,   0.00000,   0.00000,1.00000,1,    0.1,     0.850,     0.000,   1,1.0000
 14604,'1 ',     4.800,     0.000,     0.000,     0.000,1.05000,     0,     7.000,   0.00000,   0.15000,   0.00000,   0.10000,1.00000,0,    2.0,     4.800,     0.000,   5,1.0000
 14871,'1 ',     0.526,     0.000,     0.000,     0.000,1.05000,     0,     4.600,   0.02570,   0.73700,   0.00000,   0.00000,1.00000,1,    0.5,     1.700,     0.000,   7,1.0000
 15571,'DW',     1.841,    -1.960,     1.960,    -1.960,1.00000,     0,     5.950,   0.00730,   0.13500,   0.00000,   0.00000,1.00000,1,    1.9,     5.950,     0.000,   7,1.0000
 15572,'DW',     5.571,    -3.429,     5.920,    -5.920,1.00000,     0,    18.750,   0.00900,   0.16600,   0.00000,   0.00000,1.00000,1,    5.6,    18.000,     0.000,   7,1.0000
 15573,'1 ',     6.190,     0.000,     0.000,     0.000,1.04000,     0,    23.000,   0.02570,   0.73700,   0.00000,   0.00000,1.00000,1,    6.2,    20.000,     0.000,   7,1.0000
 15771,'1 ',     0.613,    -0.300,    -0.300,    -0.300,1.04000,  3581,     1.980,   0.02040,   0.33060,   0.00000,   0.00000,1.00000,1,    1.5,     1.980,     0.000,   7,1.0000
 15772,'1 ',     0.928,    -1.920,    -1.920,    -1.920,1.04000,  3581,     3.000,   0.02040,   0.33060,   0.00000,   0.00000,1.00000,1,    1.5,     3.000,     0.000,   7,1.0000
 16371,'1 ',     1.052,     0.000,     0.000,     0.000,1.00000,     0,     3.400,   0.00730,   0.13500,   0.00000,   0.00000,1.00000,1,    1.1,     3.400,     0.000,   7,1.0000
 16372,'2 ',     1.052,     0.000,     0.000,     0.000,1.00000,     0,     3.400,   0.00730,   0.13500,   0.00000,   0.00000,1.00000,1,    1.1,     3.400,     0.000,   7,1.0000
 16373,'3 ',     2.104,     0.000,     0.000,     0.000,1.00000,     0,     6.800,   0.00730,   0.13500,   0.00000,   0.00000,1.00000,1,    2.1,     6.800,     0.000,   7,1.0000
 16374,'4 ',     2.368,     0.000,     0.000,     0.000,1.00000,     0,     7.650,   0.00210,   0.08600,   0.00000,   0.00000,1.00000,1,    2.4,     7.650,     0.000,   7,1.0000
 16375,'1 ',     1.226,     0.000,     0.000,     0.000,1.00000,     0,     4.250,   0.00210,   0.08600,   0.00000,   0.00000,1.00000,1,    1.3,     3.960,     0.000,   7,1.0000
 16376,'6 ',     1.532,     0.000,     0.000,     0.000,1.00000,     0,     5.100,   0.00210,   0.08600,   0.00000,   0.00000,1.00000,1,    1.5,     4.950,     0.000,   7,1.0000
 16377,'1 ',     2.785,     0.000,     0.000,     0.000,1.00000,     0,     9.200,   0.02570,   0.73700,   0.00000,   0.00000,1.00000,1,    3.0,     9.000,     0.000,   7,1.0000
 16379,'2 ',     0.090,     0.000,     0.000,     0.000,1.00000,     0,     0.323,   0.00320,   0.12400,   0.00000,   0.00000,1.00000,1,    1.3,     0.290,     0.000,   7,1.0000
 16571,'1 ',    11.698,     0.000,     0.000,     0.000,1.05000,  1651,    40.000,   0.02570,   0.73700,   0.00000,   0.00000,1.00000,1,   12.6,    37.800,     0.000,   7,1.0000
 16670,'1 ',     1.393,    -1.159,     0.000,    -3.070,1.00000,     0,     4.500,   0.03020,   0.86600,   0.00000,   0.00000,1.00000,1,    2.9,     4.500,     0.000,   7,1.0000
 16671,'1 ',     1.052,     0.000,     0.000,     0.000,1.04000,     0,     3.400,   0.00730,   0.13500,   0.00000,   0.00000,1.00000,1,    1.1,     3.400,     0.000,   7,1.0000
 16672,'2 ',     0.492,    -0.560,    -0.560,    -0.560,1.04000,     0,     1.700,   0.00730,   0.13500,   0.00000,   0.00000,1.00000,1,    0.5,     1.590,     0.000,   7,1.0000
 16674,'1 ',     5.787,     0.000,     0.000,     0.000,1.04000,     0,    18.700,   0.00730,   0.13500,   0.00000,   0.00000,1.00000,1,    5.8,    18.700,     0.000,   7,1.0000
 16675,'2 ',     2.476,    -2.650,    -2.650,    -2.650,1.04000,     0,     8.000,   0.02690,   0.76900,   0.00000,   0.00000,1.00000,1,    2.7,     8.000,     0.000,   7,1.0000
 16873,'3 ',     8.000,     7.000,     7.000,    -1.000,1.05000,  1681,    11.500,   0.00000,   0.25000,   0.00000,   0.00000,1.00000,1,    7.0,     8.000,     2.000,   3,1.0000
 17073,'3 ',    22.500,     3.499,    23.000,   -25.000,1.05000,  1701,    35.500,   0.00410,   0.18000,   0.00000,   0.00000,1.00000,1,    7.0,    22.500,     5.000,   3,1.0000
 17074,'4 ',    22.500,     3.499,    23.000,   -25.000,1.05000,  1701,    35.500,   0.00410,   0.18000,   0.00000,   0.00000,1.00000,1,    7.0,    22.500,     5.000,   3,1.0000
 17075,'7 ',     0.613,    -0.800,    -0.800,    -0.800,1.00000,     0,     1.980,   0.02040,   0.33060,   0.00000,   0.00000,1.00000,1,    0.6,     1.980,     0.000,   7,1.0000
 17077,'8 ',     0.006,     0.000,     0.000,     0.000,1.00000,     0,     1.200,   0.03020,   0.86600,   0.00000,   0.00000,1.00000,1,    0.3,     0.020,     0.000,   7,1.0000
 17671,'1 ',    10.000,     3.499,     7.000,    -3.000,1.05000,  1701,    12.500,   0.00000,   0.15000,   0.00000,   0.00000,1.00000,1,    7.0,    10.000,     3.000,   3,1.0000
 17672,'2 ',    10.000,     3.499,     7.000,    -3.000,1.05000,  1701,    12.500,   0.00000,   0.13500,   0.00000,   0.00000,1.00000,1,    7.0,    10.000,     3.000,   3,1.0000
 18471,'1 ',     1.544,     0.000,     0.000,     0.000,1.04000,     0,     5.200,   0.00550,   0.14300,   0.00000,   0.00000,1.00000,1,    1.5,     4.990,     0.000,   7,1.0000
 18472,'DW',     0.774,     0.000,     0.000,    -0.820,1.00000,     0,     2.978,   0.00220,   0.41940,   0.00000,   0.00000,1.00000,1,    0.8,     2.500,     0.000,   7,1.0000
 19081,'1 ',     0.789,     0.000,     0.000,     0.000,1.04000,     0,     2.550,   0.00730,   0.13500,   0.00000,   0.00000,1.00000,1,    0.8,     2.550,     0.000,   7,1.0000
 19082,'2 ',     0.526,     0.000,     0.000,     0.000,1.05000,     0,     1.700,   0.00730,   0.13500,   0.00000,   0.00000,1.00000,1,    0.5,     1.700,     0.000,   7,1.0000
 19083,'1 ',     1.544,     0.000,     0.000,     0.000,1.04000,     0,     6.900,   0.02570,   0.73700,   0.00000,   0.00000,1.00000,1,    1.6,     4.990,     0.000,   7,1.0000
 19084,'2 ',     1.393,    -1.500,    -1.500,    -1.500,1.04000,     0,     4.600,   0.02570,   0.73700,   0.00000,   0.00000,1.00000,1,    1.6,     4.500,     0.000,   7,1.0000
 19085,'1 ',     6.499,    -7.000,    -7.000,    -7.000,1.04000,     0,    23.824,   0.00220,   0.41940,   0.00000,   0.00000,1.00000,1,    6.6,    21.000,     0.000,   7,1.0000
 19101,'OH',    98.400,     0.000,    51.000,   -36.170,1.07500,  1911,   108.240,   0.00000,   0.14400,   0.00279,   0.11997,1.00000,0,   51.0,    98.400,    34.000,   1,1.0000
 19317,'SC',     0.000,    -6.000,     6.000,    -6.000,1.05000,  1931,     6.000,   0.00000,9999.00000,   0.00000,   0.00000,1.00000,1,    6.0,     0.000,     0.000,   1,1.0000
 19371,'1 ',     7.350,     0.000,     0.000,     0.000,1.05000,  1931,    29.780,   0.00220,   0.41940,   0.00000,   0.00000,1.00000,1,   11.0,    23.750,     0.000,   7,1.0000
 19372,'2 ',     3.420,     0.000,     0.000,     0.000,1.05000,  1931,    11.050,   0.00730,   0.13500,   0.00000,   0.00000,1.00000,1,   11.6,    11.050,     0.000,   7,1.0000
 19471,'1 ',   133.000,    81.633,    94.000,   -50.000,1.07500,  1941,   153.000,   0.00000,   0.15300,   0.00000,   0.00000,1.00000,1,   75.0,   133.500,    60.000,   4,1.0000
 19472,'5 ',    58.274,     0.000,    38.000,   -23.000,1.07500,  1941,    66.625,   0.00200,   0.14450,   0.00000,   0.00000,1.00000,0,   41.0,    58.274,    19.700,   1,1.0000
 19473,'3 ',    58.274,     0.000,    40.000,   -23.000,1.07500,  1941,    66.625,   0.00200,   0.14450,   0.00000,   0.00000,1.00000,0,   41.0,    58.274,    19.700,   1,1.0000
 19601,'2 ',     0.585,     0.000,     0.000,     0.000,1.00000,     0,     6.500,   0.00000,   0.21900,   0.00000,   0.00000,1.00000,1,  100.0,     5.850,     0.000,   2,1.0000
 19771,'1 ',    13.153,     0.000,     0.000,     0.000,1.05000,  1971,    46.875,   0.00900,   0.16600,   0.00000,   0.00000,1.00000,1,    8.5,    42.500,     0.000,   7,1.0000
 19772,'TW',     2.631,    -0.422,     2.790,    -2.790,1.05000,  1971,     8.500,   0.00730,   0.13500,   0.00000,   0.00000,1.00000,1,    2.8,     8.500,     0.000,   7,1.0000
 19773,'TW',     9.284,    -1.487,     9.860,    -9.860,1.05000,  1971,    38.714,   0.00220,   0.41940,   0.00000,   0.00000,1.00000,1,    9.9,    30.000,     0.000,   7,1.0000
 19971,'1 ',     6.190,    -6.700,     6.700,    -6.700,1.05000,  1991,    20.700,   0.02570,   0.73700,   0.00000,   0.00000,1.00000,1,    6.7,    20.000,     0.000,   7,1.0000
 19972,'2 ',     0.712,     0.000,     0.000,     0.000,1.05000,  1991,     2.300,   0.02570,   0.73700,   0.00000,   0.00000,1.00000,1,    0.7,     2.300,     0.000,   7,1.0000
 19973,'3 ',     0.712,     0.000,     0.000,     0.000,1.05000,  1991,     2.300,   0.02570,   0.73700,   0.00000,   0.00000,1.00000,1,    1.1,     2.300,     0.000,   7,1.0000
 19974,'4 ',     4.983,    -4.000,     4.000,    -4.000,1.05000,  1991,    16.100,   0.02570,   0.73700,   0.00000,   0.00000,1.00000,1,    4.0,    16.100,     0.000,   7,1.0000
 21071,'2 ',     0.155,     0.000,     0.000,     0.000,1.05000,     0,     0.850,   0.00730,   0.13500,   0.00000,   0.00000,1.00000,1,    0.2,     0.500,     0.000,   7,1.0000
 21371,'TW',     8.820,    -9.500,     9.500,    -9.500,1.05000,  2131,    31.730,   0.00920,   0.16210,   0.00000,   0.00000,1.00000,1,    9.5,    28.500,     0.000,   7,1.0000
 21372,'2 ',     5.416,    -5.800,     5.800,    -5.800,1.05000,  2131,    23.380,   0.00920,   0.16210,   0.00000,   0.00000,1.00000,1,    5.8,    17.500,     0.000,   7,1.0000
 21871,'1 ',     0.526,     0.000,     0.000,     0.000,1.01000,     0,     1.700,   0.00730,   0.13500,   0.00000,   0.00000,1.00000,1,    0.5,     1.700,     0.000,   7,1.0000
 21872,'2 ',     0.774,    -0.990,    -0.990,    -1.280,1.01000,     0,     2.700,   0.03020,   0.86600,   0.00000,   0.00000,1.00000,1,    0.9,     2.500,     0.000,   7,1.0000
 21873,'1 ',     1.274,     0.000,     0.000,     0.000,1.00000,     0,     1.600,   0.02040,   0.33060,   0.00000,   0.00000,1.00000,0,  100.0,     1.274,     0.000,   1,1.0000
 22273,'DW',     1.393,    -1.074,     0.000,    -1.480,1.00000,     0,     4.000,   0.02690,   0.76900,   0.00000,   0.00000,1.00000,1,    1.4,     4.500,     0.000,   7,1.0000
 22274,'2 ',     1.838,    -2.400,    -2.400,    -2.400,1.00000,     0,     5.940,   0.02040,   0.33060,   0.00000,   0.00000,1.00000,1,    1.9,     5.940,     0.000,   7,1.0000
 22275,'4 ',     1.315,     0.000,     0.000,     0.000,1.00000,     0,     4.250,   0.00730,   0.13500,   0.00000,   0.00000,1.00000,1,    1.3,     4.250,     0.000,   7,1.0000
 22276,'3 ',     1.841,     0.000,     0.000,     0.000,1.00000,     0,     6.680,   0.00920,   0.16210,   0.00000,   0.00000,1.00000,1,    1.9,     5.950,     0.000,   7,1.0000
 22278,'1 ',     1.430,    -1.000,    -1.000,    -1.000,1.00000,     0,     4.620,   0.02040,   0.33060,   0.00000,   0.00000,1.00000,1,    1.4,     4.620,     0.000,   7,1.0000
 22292,'5 ',     6.000,     0.000,     0.000,     0.000,1.00000,     0,     6.000,   0.00000,   0.20000,   0.00000,   0.10000,1.00000,0,    2.0,     6.000,     0.000,   1,1.0000
 22371,'1 ',    18.414,     0.000,     0.000,     0.000,1.05000,  2231,    59.500,   0.00730,   0.13500,   0.00000,   0.00000,1.00000,1,   12.0,    59.500,     0.000,   7,1.0000
 22471,'1 ',     0.789,     0.000,     0.000,     0.000,1.04000,     0,     2.550,   0.00730,   0.13500,   0.00000,   0.00000,1.00000,1,    0.8,     2.550,     0.000,   7,1.0000
 22472,'2 ',     1.315,     0.000,     0.000,     0.000,1.04000,     0,     4.250,   0.00730,   0.13500,   0.00000,   0.00000,1.00000,1,    1.3,     4.250,     0.000,   7,1.0000
 22473,'1 ',     1.315,    -1.500,    -1.500,    -1.500,1.01000,     0,     4.250,   0.00730,   0.13500,   0.00000,   0.00000,1.00000,1,    1.3,     4.250,     0.000,   7,1.0000
 22671,'1 ',    52.100,     0.000,    32.600,   -22.700,1.05000,  2261,    62.000,   0.00000,   0.17900,   0.00000,   0.00000,1.00000,0,   32.6,    52.100,     1.200,   3,1.0000
 22672,'2 ',    52.100,     0.000,    32.600,   -22.700,1.05000,  2261,    62.000,   0.00000,   0.17900,   0.00000,   0.00000,1.00000,0,   32.6,    52.100,     1.200,   3,1.0000
 22871,'1 ',     0.743,    -0.840,    -0.840,    -1.090,1.01000,     0,     2.400,   0.02690,   0.76900,   0.00000,   0.00000,1.00000,1,    0.8,     2.400,     0.000,   7,1.0000
 25604,'1 ',     1.600,     0.000,     0.000,     0.000,1.00000,     0,     1.700,   0.00000,   0.10000,   0.01000,   0.06000,1.00000,0,    0.1,     1.600,     0.000,   2,1.0000
 26771,'1 ',     8.047,   -10.000,    10.000,   -10.000,1.05000,  1631,    26.000,   0.00900,   0.14800,   0.00000,   0.00000,1.00000,1,   10.0,    26.000,     0.000,   7,1.0000
 26772,'1 ',     0.600,     0.000,     0.000,     0.000,1.07500,  2671,     6.000,   0.00900,   0.14800,   0.00000,   0.00000,1.00000,1,    2.0,     6.000,     6.000,   1,1.0000
 26773,'1 ',     6.809,   -10.000,    10.000,   -10.000,1.05000,  1631,    22.000,   0.00900,   0.14800,   0.00000,   0.00000,1.00000,1,   10.0,    22.000,     0.000,   7,1.0000
 26774,'1 ',     0.600,     0.000,     0.000,     0.000,1.07500,  2671,     6.000,   0.00900,   0.14800,   0.00000,   0.00000,1.00000,1,  100.0,     6.000,     6.000,   1,1.0000
 27071,'1 ',     0.248,     0.000,     0.000,     0.000,1.00000,     0,     0.800,   0.02690,   0.76900,   0.00000,   0.00000,1.00000,1,  100.0,     0.800,     0.000,   7,1.0000
 27204,'5 ',     4.000,    -1.000,     1.000,    -1.000,1.04000,     0,     5.000,   0.00000,   0.27000,   0.00000,   0.10000,1.00000,1,    1.0,     4.000,     0.000,   3,1.0000
 27361,'SC',     0.000,    -1.855,    12.300,   -12.300,1.05000,  1971,    12.300,   0.00000,9999.00000,   0.00000,   0.00000,1.00000,1,   12.3,     0.000,     0.000,   1,1.0000
 27371,'1 ',     3.961,     0.000,     0.000,     0.000,1.05000,  1971,    14.450,   0.00730,   0.13500,   0.00000,   0.00000,1.00000,1,    4.0,    12.800,     0.000,   7,1.0000
 27372,'2 ',     5.261,     0.000,     0.000,     0.000,1.05000,  1971,    18.750,   0.00900,   0.16600,   0.00000,   0.00000,1.00000,1,    5.3,    17.000,     0.000,   7,1.0000
 27374,'2 ',     1.857,    -1.970,    -1.970,    -1.970,1.05000,  1971,     6.250,   0.00900,   0.16600,   0.00000,   0.00000,1.00000,1,    1.9,     6.000,     0.000,   7,1.0000
 27471,'1 ',    57.000,     0.000,    42.000,    -3.000,1.07500,  2741,    75.000,   0.00000,   0.16000,   0.00000,   0.00000,1.00000,0,   42.0,    57.000,    25.000,   3,1.0000
 27472,'2 ',    51.800,     0.000,    40.000,    -3.000,1.07500,  2741,    75.000,   0.00000,   0.16000,   0.00000,   0.00000,1.00000,0,   40.0,    51.800,    25.000,   3,1.0000
 27473,'3 ',   121.000,     0.000,    82.000,   -48.000,1.07500,  2742,   150.000,   0.00000,   0.14600,   0.00000,   0.00000,1.00000,0,   82.0,   121.000,    30.000,   3,1.0000
 27474,'1 ',   235.000,   119.699,   285.000,  -182.000,1.07500,  2742,   570.600,   0.00000,   0.21500,   0.00000,   0.00000,1.00000,1,  267.0,   469.500,   235.000,   1,1.0000
 27771,'1 ',    12.758,    -1.960,    13.000,   -13.610,1.05000,  1971,    41.400,   0.00000,   0.50400,   0.00000,   0.00000,1.00000,1,   13.0,    41.225,     0.000,   7,1.0000
 27772,'2 ',     3.095,    -2.000,    -2.000,    -2.000,1.00000,     0,    11.912,   0.00220,   0.41940,   0.00000,   0.00000,1.00000,1,    3.1,    10.000,     0.000,   7,1.0000
 27773,'3 ',     1.547,    -1.000,    -1.000,    -1.000,1.00000,     0,     4.600,   0.02570,   0.73700,   0.00000,   0.00000,1.00000,1,    1.6,     5.000,     0.000,   7,1.0000
 27774,'4 ',     5.571,    -3.000,    -3.000,    -3.000,1.05000,  1971,    18.400,   0.00000,   0.50400,   0.00000,   0.00000,1.00000,1,    6.1,    18.000,     0.000,   7,1.0000
 27871,'1 ',     1.021,    -0.700,    -0.700,    -0.700,1.04000,     0,     3.300,   0.02040,   0.33060,   0.00000,   0.00000,1.00000,1,    1.0,     3.300,     0.000,   7,1.0000
 28071,'1 ',     4.642,    -6.000,    -6.000,    -6.000,1.05000,  2801,    15.000,   0.02040,   0.33060,   0.00000,   0.00000,1.00000,1,    6.6,    15.000,     0.000,   7,1.0000
 28271,'1 ',     0.928,    -1.200,    -1.200,    -1.200,1.04000,     0,     3.340,   0.00920,   0.16210,   0.00000,   0.00000,1.00000,1,    0.9,     3.000,     0.000,   7,1.0000
...